Circuit: * C:\Users\RossHarvey\Documents\Electronics Documents\Argon_RevB\Simulation\High Voltage Converter\hv_control_circuitry.asc

WARNING: Less than two connections to node 12V.  This node is used by V2.
WARNING: Less than two connections to node 5V.  This node is used by V4.
Direct Newton iteration failed to find .op point.  (Use ".option noopiter" to skip.)
Starting Gmin stepping
Gmin = 10
Gmin = 1.07374
Gmin = 0.115292
Gmin = 0.0123794
Gmin = 0.00132923
Gmin = 0.000142725
Gmin = 1.5325e-005
Gmin = 1.6455e-006
Gmin = 1.76685e-007
Gmin = 1.89714e-008
Gmin = 2.03704e-009
Gmin = 2.18725e-010
Gmin = 2.34854e-011
Gmin = 2.52173e-012
Gmin = 2.70769e-013
Gmin = 0
Gmin stepping succeeded in finding the operating point.


Date: Sun Mar 27 12:09:49 2016
Total elapsed time: 0.256 seconds.

tnom = 27
temp = 27
method = modified trap
totiter = 4432
traniter = 3845
tranpoints = 1424
accept = 1319
rejected = 105
matrix size = 45
fillins = 92
solver = Normal
Thread vector: 21.6/15.2[4] 5.4/2.9[4] 2.1/1.4[3] 0.3/0.7[1]  2592/500
Matrix Compiler1: 7.31 KB object code size  1.7/0.9/[0.5]
Matrix Compiler2: off  [0.5]/0.8/0.9


